powerfactory/powerfactory-converter/src/test/resources/MTDCVscLoss2.dgs
$$General;ID(a:40);Descr(a:40);Val(a:40)
1;Version;5.0

$$ElmVsc;ID(a:40);loc_name(a:80);fold_id(p);usetp(r);psetp(r);qsetp(r);Pnold(r);Unom(r);P_max(r);i_acdc(i);usetpdc(r);swtLossFactor(r);resLossFactor(r);Unomdc(r)
6;HVDC Converter 1;9;;2718;3.14;1.234;300;1000;5;;0;0;525

$$ElmNet;ID(a:40);loc_name(a:40);for_name(a:50);fold_id(p);frnom(r);pDiagram(p)
9;1 aux_1;;;60;

$$ElmTerm;ID(a:40);loc_name(a:40);fold_id(p);systype(i);iUsage(i);uknom(r);unknom(r);iminus(i)
12;2 Bus 2;9;0;0;165;95.26279;0
14;4 HVDC Link_T_DC_pos1;9;1;0;320;320.0;0
16;6 HVDC Link_T_DC_neg1;9;1;0;320;320.0;1

$$StaCubic;ID(a:40);loc_name(a:40);fold_id(p);obj_bus(i);obj_id(p);it2p1(i);it2p2(i);it2p3(i)
22;HVDC Converter 1 AC Node;12;0;6;0;1;2
26;HVDC Converter 1 DC Node-1;14;1;6;0;1;2
27;HVDC Converter 1 DC Node-2;16;2;6;0;1;2

